<?xml version="1.0" encoding="ISO-8859-1"?>
<febio_spec version="4.0">
	<Material>
		<material id="1" name="Tissue" type="neo-Hookean">
			<density>1</density>
			<E>1.0</E>
			<v>0.45</v>
		</material>
	</Material>
	<Mesh>
		<Nodes name="AllNodes">
			<node id="1">0,0,0</node>
			<node id="2">1,0,0</node>
			<node id="3">1,1,0</node>
			<node id="4">0,1,0</node>
		</Nodes>
		<Elements type="quad4" name="Part1">
			<elem id="1">1,2,3,4</elem>
		</Elements>
		<Surface name="TopSurface">
			<quad4 id="1">1,2,3,4</quad4>
		</Surface>
		<NodeSet name="FixedNodes">
			<node id="1"/>
			<node id="4"/>
		</NodeSet>
	</Mesh>
	<MeshDomains>
		<SolidDomain name="Part1" mat="Tissue"/>
	</MeshDomains>
	<Loads>
		<surface_load type="pressure" surface="TopSurface">
			<pressure>0.019</pressure>
		</surface_load>
	</Loads>
</febio_spec>
