<?xml version="1.0" encoding="ISO-8859-1"?>
<febio_spec version="4.0">
	<Material>
		<material id="1" name="Tissue" type="neo-Hookean">
			<density>1</density>
			<E>1.0</E>
			<v>0.45</v>
		</material>
	</Material>
	<Mesh>
		<Nodes name="AllNodes">
			<node id="1">0,0,0</node>
			<node id="2">1,0,0</node>
			<node id="3">1,1,0</node>
			<node id="4">0,1,0</node>
		</Nodes>
		<Nodes name="GridNodes">
			<node id="10">0,2,0</node>
			<node id="11">1,2,0</node>
			<node id="12">2,2,0</node>
			<node id="13">0,1,0</node>
			<node id="14">1,1,0</node>
			<node id="15">2,1,0</node>
			<node id="16">0,0,0</node>
			<node id="17">1,0,0</node>
			<node id="18">2,0,0</node>
		</Nodes>
		<Elements type="quad4" name="Part1">
			<elem id="1">1,2,3,4</elem>
		</Elements>
		<Elements type="quad4" name="GridPart">
			<elem id="1">10,13,14,11</elem>
			<elem id="2">11,14,15,12</elem>
			<elem id="3">13,16,17,14</elem>
			<elem id="4">14,17,18,15</elem>
		</Elements>
		<Surface name="TopSurface">
			<quad4 id="1">1,2,3,4</quad4>
		</Surface>
		<NodeSet name="FixedNodes">
			<node id="1"/>
			<node id="4"/>
		</NodeSet>
		<NodeSet name="FixedNodesFlat">
			1, 2,
			3
		</NodeSet>
	</Mesh>
	<MeshDomains>
		<SolidDomain name="Part1" mat="Tissue"/>
	</MeshDomains>
	<Loads>
		<surface_load type="pressure" surface="TopSurface">
			<pressure>0.019</pressure>
		</surface_load>
	</Loads>
</febio_spec>
